/prep7
! Turn off shape checking because checks already performed inside WB mesher.
! See help system for more information.
SHPP,OFF,,NOWARN
/nolist
etcon,set             ! allow ANSYS to choose best KEYOP's for 180x elements
/com,*********** Nodes for the whole assembly ***********
nblock,3,,651
(1i9,3e20.9e3)
        1     1.059999987E+02     1.000000047E+00     6.938893904E-14
        2     1.060000000E+02     4.600000024E+00     6.938893904E-14
        3     1.060000000E+02     1.000000000E+00    -3.999999911E+00
        4     1.060000000E+02     4.600000000E+00    -4.000000000E+00
        5     1.060000000E+02     1.000000000E+00    -7.999999821E+00
        6     1.060000013E+02     4.600000000E+00    -8.000000000E+00
        7     1.060000000E+02     1.000000000E+00    -1.199999973E+01
        8     1.060000000E+02     4.600000000E+00    -1.200000000E+01
        9     1.060000000E+02     1.000000000E+00    -1.599999964E+01
       10     1.060000013E+02     4.600000000E+00    -1.600000000E+01
       11     1.059999987E+02     1.000000047E+00    -1.999999955E+01
       12     1.060000000E+02     4.600000024E+00    -2.000000000E+01
       13     1.060000000E+02     8.200000001E+00     6.938893904E-14
       14     1.060000013E+02     8.200000000E+00    -4.000000000E+00
       15     1.060000013E+02     8.200000000E+00    -8.000000000E+00
       16     1.060000000E+02     8.200000000E+00    -1.200000000E+01
       17     1.060000013E+02     8.200000000E+00    -1.600000000E+01
       18     1.060000000E+02     8.200000001E+00    -2.000000000E+01
       19     1.060000000E+02     1.179999998E+01     6.938893904E-14
       20     1.060000013E+02     1.180000000E+01    -4.000000000E+00
! ... 573 like lines cut
/wb,elem,start            !  set before creation of elements
/com,*********** Elements for Body 1 "Midsurface - Solid\Midsurface111" ***********
et,1,181
keyo,1,3,2
eblock,19,solid,,523
(19i9)
        1        1        1        1        0        0        0        0        4        0        1        1        2        4        3
        1        1        1        1        0        0        0        0        4        0        2        3        4        6        5
        1        1        1        1        0        0        0        0        4        0        3        5        6        8        7
        1        1        1        1        0        0        0        0        4        0        4        7        8       10        9
        1        1        1        1        0        0        0        0        4        0        5        9       10       12       11
        1        1        1        1        0        0        0        0        4        0        6        2       13       14        4
        1        1        1        1        0        0        0        0        4        0        7        4       14       15        6
        1        1        1        1        0        0        0        0        4        0        8        6       15       16        8
        1        1        1        1        0        0        0        0        4        0        9        8       16       17       10
        1        1        1        1        0        0        0        0        4        0       10       10       17       18       12
        1        1        1        1        0        0        0        0        4        0       11       13       19       20       14
        1        1        1        1        0        0        0        0        4        0       12       14       20       21       15
        1        1        1        1        0        0        0        0        4        0       13       15       21       22       16
        1        1        1        1        0        0        0        0        4        0       14       16       22       23       17
        1        1        1        1        0        0        0        0        4        0       15       17       23       24       18
        1        1        1        1        0        0        0        0        4        0       16       19       25       26       20
        1        1        1        1        0        0        0        0        4        0       17       20       26       27       21
        1        1        1        1        0        0        0        0        4        0       18       21       27       28       22
        1        1        1        1        0        0        0        0        4        0       19       22       28       29       23
        1        1        1        1        0        0        0        0        4        0       20       23       29       30       24
! ... 504 like lines cut
!Material Id = {C4188018-F090-45CA-90DC-F33445BE2FB4}
/wb,elem,end               !  done creating elements
/com,*********** Send User Defined Coordinate System(s) ***********
local,12,1,0.,0.,0.,90.,0.,90.
csys,0
toffst,273.15,  ! Temperature offset from absolute zero
/com,*********** Set Reference Temperature ***********
tref,22.
/wb,mat,start              !  starting to send materials
/com,*********** Send Materials ***********
MP,EX,1,191000,	! tonne s^-2 mm^-1
MP,NUXY,1,0.3,
MP,DENS,1,7.85e-09,	! tonne mm^-3

/wb,mat,end                !  done sending materials
/com,*********** Send Sheet Properties ***********
sectype,1,shell
secdata,2.
secoff,mid

!************************* Model Summary ********************
!Midsurface - Solid\Midsurface111,	304 Stainless Steel,	matid,	1
!************************* End Model Summary ********************
! get the diagonal of the bounding box. Needed later for other things
*get,_xmin,node,,mnloc,x
*get,_ymin,node,,mnloc,y
*get,_zmin,node,,mnloc,z
*get,_xmax,node,,mxloc,x
*get,_ymax,node,,mxloc,y
*get,_zmax,node,,mxloc,z
_ASMDIAG=(_xmax-_xmin)*(_xmax-_xmin)+(_ymax-_ymin)*(_ymax-_ymin)+(_zmax-_zmin)*(_zmax-_zmin)
_ASMDIAG=SQRT(_ASMDIAG)
/wb,contact,start          !  starting to send contact
/wb,contact,end            !  done creating contacts
/com,*********** Send Named Selection as Node Component ***********
CMBLOCK,INNER_EDGE,NODE,       11
(8i10)
       540       541       542       543       544       545       546       547
       548       570       572
/com,*********** Send Named Selection as Node Component ***********
CMBLOCK,BLADE_SIDE,NODE,       64
(8i10)
         1         2        11        12        13        18        19        24
        25        30        31        36        37        42        43        48
        49        54        55        60        61        66        67        72
        73        78        79        84        85        90        91        96
        97        99       107       108       109       114       115       120
       121       126       127       132       133       138       139       144
       145       150       151       156       157       162       163       168
       169       174       175       180       181       186       187       192

/com,*********** Send Named Selection as Node Component ***********
CMBLOCK,BLADE_TOP_BOTTOM,NODE,       24
(8i10)
         1         3         5         7         9        11        91        92
        93        94        95        96        97        98       101       103
       105       107       187       188       189       190       191       192

/com,*********** Send Named Selection as Node Component ***********
CMBLOCK,OUTER_EDGE,NODE,       13
(8i10)
        11       187       212       214       531       532       533       534
       535       536       537       538       539
/com,*********** Send Named Selection as Node Component ***********
CMBLOCK,HOLE    ,NODE,       11
(8i10)
       540       541       542       543       544       545       546       547
       548       570       572
/golist
/wb,load,start             !  starting to send loads
/com,*********** Fixed Supports ***********
CMBLOCK,_FIXEDSU,NODE,       11
(8i10)
       540       541       542       543       544       545       546       547
       548       570       572

